120

Th -3.753940 -3.550581 13.590131
Th -2.615888 2.167085 8.797847
Th -2.102260 4.582503 11.752245
Th 5.049637 0.520221 11.422453
Th 2.898167 3.550581 11.837172
O -4.117247 1.221115 10.092097
O -3.678741 3.342844 12.690767
O -2.363728 -2.563014 15.060592
O -2.233636 -2.332724 12.397336
O -1.340672 -4.708549 13.451043
O -4.933807 -2.325457 15.309779
O -4.699750 -1.813255 12.657712
O -3.511652 -5.227266 15.571681
O -3.887478 -6.054206 13.578180
O -3.563959 -4.500560 11.304979
O -6.032127 -4.242455 13.461214
O -4.717439 2.480821 7.615477
O 3.448486 -0.316242 10.158208
O -1.202795 3.102029 10.303398
O 1.507956 2.563014 10.366712
O 3.693387 -0.856760 12.751793
O -1.662358 0.497668 10.038699
O 1.377863 2.332724 13.029967
O -1.197075 2.855200 12.980638
O -0.053243 1.751610 8.162164
O 0.484899 4.708549 11.976260
O -3.644506 3.904161 10.028528
O 4.078034 2.325457 10.117524
O 3.843977 1.813255 12.769592
O -2.652309 0.080188 7.501054
O -2.163294 2.613633 6.321228
O -1.674764 4.275031 7.686674
O 6.141079 0.566329 9.179256
O -1.345996 5.999077 9.939533
O 2.655879 5.227266 9.855623
O 3.031705 6.054206 11.849123
O -1.579277 5.309960 14.150294
O -1.381429 6.891170 12.637370
O -3.968906 6.074253 11.948290
O 6.216517 -1.453410 10.987138
O 6.427568 0.355835 13.257796
O 2.708187 4.500560 14.122324
O 5.176354 4.242455 11.966089
O 6.514963 2.470798 11.610107
