120

Th -5.905409 -0.520221 14.004850
Th -3.753940 -3.550581 13.590131
Th -3.351951 -0.626721 11.231494
Th -0.597356 -0.993080 8.669693
Th -2.615888 2.167085 8.797847
Th 2.455096 1.152204 8.855313
Th -0.136997 1.435869 11.511194
Th 5.049637 0.520221 11.422453
Th 2.898167 3.550581 11.837172
Th 2.496179 0.626721 14.195809
O -4.304259 0.316242 15.269096
O -2.363728 -2.563014 15.060592
O -4.549160 0.856760 12.675511
O 0.806586 -0.497668 15.388604
O -2.233636 -2.332724 12.397336
O -1.815661 0.289429 12.695598
O -1.340672 -4.708549 13.451043
O -4.933807 -2.325457 15.309779
O -4.699750 -1.813255 12.657712
O -2.211452 -2.062339 9.776798
O -6.996852 -0.566329 16.248047
O -3.511652 -5.227266 15.571681
O -3.887478 -6.054206 13.578180
O -7.072289 1.453410 14.440166
O -7.283341 -0.355835 12.169507
O -3.563959 -4.500560 11.304979
O -6.032127 -4.242455 13.461214
O -7.370736 -2.470798 13.817197
O -4.717439 2.480821 7.615477
O 3.261474 -1.221115 15.335207
O 3.448486 -0.316242 10.158208
O 0.419817 -2.573539 9.860708
O 0.934849 -0.034581 10.059041
O -1.202795 3.102029 10.303398
O 1.507956 2.563014 10.366712
O 3.693387 -0.856760 12.751793
O -1.662358 0.497668 10.038699
O 1.377863 2.332724 13.029967
O -1.197075 2.855200 12.980638
O -0.053243 1.751610 8.162164
O 0.959888 -0.289429 12.731705
O 0.484899 4.708549 11.976260
O -3.644506 3.904161 10.028528
O 4.078034 2.325457 10.117524
O 3.843977 1.813255 12.769592
O 1.355679 2.062339 15.650505
O -2.652309 0.080188 7.501054
O -0.887333 -0.365858 6.244946
O 1.599639 -0.836964 7.452743
O 2.057549 1.024905 6.374625
O -2.163294 2.613633 6.321228
O -1.674764 4.275031 7.686674
O 4.478404 0.674082 7.712101
O 6.141079 0.566329 9.179256
O 2.562077 3.307762 7.834152
O 2.655879 5.227266 9.855623
O 3.031705 6.054206 11.849123
O 6.216517 -1.453410 10.987138
O 6.427568 0.355835 13.257796
O 2.708187 4.500560 14.122324
O 5.176354 4.242455 11.966089
O 6.514963 2.470798 11.610107
O -0.975741 -2.911833 7.290008
